apiVersion: v1
clusters:
- cluster: {certificate-authority-data: LS0tLS1CRUdJTiBDRVJUSUZJQ0FURS0tLS0tCk1JSURFekNDQWZ1Z0F3SUJBZ0lVUm8rZldQZ1hVenIvalZkdmVrejI3UTdsa3pvd0RRWUpLb1pJaHZjTkFRRUwKQlFBd0dERVdNQlFHQTFVRUF3d05TM1ZpWlhKdVpYUmxjeTFqWVRBZ0Z3MHlNekF6TURFeE1UVXpNVE5hR0E4eQpNRFV3TURjeE56RXhOVE14TTFvd0dERVdNQlFHQTFVRUF3d05TM1ZpWlhKdVpYUmxjeTFqWVRDQ0FTSXdEUVlKCktvWklodmNOQVFFQkJRQURnZ0VQQURDQ0FRb0NnZ0VCQU5KbjRMTWRFZ1hqQ0xMdHNlVDJOUmpaSUt1Q3NPNlQKMEZuMXN5YWh0SmRRZWZuYmI3NWUwSTlzbEVnMkRENUptalJmeGx6OFlzV2hNOERRa2VOL3AyeFphK2huL2FyeApwUmcwZU1zemw4dTJGN3VpMTh3QmdtUFhqUWdpZlpwZ3IzRnd0a3FZSFRZVHdCQVZOK0pWSkRNNDN0b0JZbXg3CnE3anp4cTh3WUN6VjJRRDgwMnd4aVVxc0xQL25hc29Eakt0UDlYc3F0dUtGdk1aNWtua1VIWFZOTmtZU21SWTkKOWdCV1NsdEdXeFhmcUF4U2tlNXk4eFhtL29qakIrYXFQT2k4cWNmeDMzN2dodStKSkxNbG1DNWV5eFJxbU9JUAprQ21ucU1adnU3ZHE5Nk1SQmg0Z0JDZFFsWHNud2VpSDJYQ0pFVlBOMWNmN2E5L2piMllRSDRNQ0F3RUFBYU5UCk1GRXdIUVlEVlIwT0JCWUVGQ2ZzbnBjZk9Yc0ZMV2xUblViaDY1UmJvM2ZXTUI4R0ExVWRJd1FZTUJhQUZDZnMKbnBjZk9Yc0ZMV2xUblViaDY1UmJvM2ZXTUE4R0ExVWRFd0VCL3dRRk1BTUJBZjh3RFFZSktvWklodmNOQVFFTApCUUFEZ2dFQkFBZ3ZVVFNQVFVxQVVWcVlYQVp4emxuZXBxTlI4R0ZWTHA1ZWgxM2h3RkZGY2NSYTdPTnRreUEyCk9qdXJ1cFVUZ09JbFp1TXJ1UXMrUk1zQkQ0WkpxZkhEeDB5QTRrUy9ZWFdnWmZWZytZMkdNU000UDJTNm5QM1cKNitVcFhiTHJWaDBxYTdDSDl4ZFMrQm5YVFJPZTl5N0RINUJFeXhBTGhlMTA0K3NZb0RTL3lwZzVlMVZPdnhvUApLcDZtTmNocEFLQmdZRURQT2lpU3RmdDFhSGhET29nNWNZTmNHTnhxNG41MmJGTzVvc0plZk9VYXloeTR0REppCmk2VGRtMW5rL1I5blBYU3BqS2RFSUpiSTdaaWkwTmRWRW9Gb2llVTIwbHFpNHFaMWVjN3daZ3Fia05PdUFxYngKY3JiUThYTVBmUzVweXJyeEUrSXp2RTdrZUduMUY3cz0KLS0tLS1FTkQgQ0VSVElGSUNBVEUtLS0tLQo=,
    server: 'https://api.ccd-c17c028.athtem.eei.ericsson.se'}
  name: ccd-c17c028
contexts:
- context: {cluster: ccd-c17c028, user: eccd}
  name: eccd@ccd-c17c028
current-context: eccd@ccd-c17c028
kind: Config
preferences: {}
users:
- name: eccd
  user: {client-certificate-data: LS0tLS1CRUdJTiBDRVJUSUZJQ0FURS0tLS0tCk1JSURGakNDQWY2Z0F3SUJBZ0lJZm54U2tCM3lOa0F3RFFZSktvWklodmNOQVFFTEJRQXdHREVXTUJRR0ExVUUKQXd3TlMzVmlaWEp1WlhSbGN5MWpZVEFlRncweU16QXpNREV4TVRVek1UTmFGdzB6TkRBME1Ea3hPRFExTkRoYQpNRFF4RnpBVkJnTlZCQW9URG5ONWMzUmxiVHB0WVhOMFpYSnpNUmt3RndZRFZRUURFeEJyZFdKbGNtNWxkR1Z6CkxXRmtiV2x1TUlJQklqQU5CZ2txaGtpRzl3MEJBUUVGQUFPQ0FROEFNSUlCQ2dLQ0FRRUFzWUFVRE5iVUIyVjIKVW1XUUhPZmpRbVNsMWNZQnpMY1A5UDhVMWoyZFdIVjNqS29TMFpvYnFGUDAybE9CWHRrMjU2bXRuRk9uQmtMWAoySTFmME1uOUJaQ2dkY283clRid1NOa2RIRWZKODViWVc2MFpYT0E1NEpodDVGQVdtNkZ3TzkrMzduUWtzMExaCjlpOWRHTEJ4VkdFaDF2NEovSFJKVi9TUXRSNnp4SHplUXo4UGxzK1ZvUEFHTUhDbFpTQXFQalhZWEk0eGlZSmkKWkhrK1NSTWR0WWJxSit4bHd6dkFvM1gvTTFuZi90RGdYNlFzdTVNWTVjZEpZaHNOZzIvUVR4NExpcDljdjFMawp1RFFlekEzQkhDMlhMaFlMdG9jWFdMUXJWakYyYS9kT2NQQWRWZ2xpQ1R1WTlNL3p3OGRaSUJpMWk4NFE1TmV1CkF4VFhxTFBnYndJREFRQUJvMGd3UmpBT0JnTlZIUThCQWY4RUJBTUNCYUF3RXdZRFZSMGxCQXd3Q2dZSUt3WUIKQlFVSEF3SXdId1lEVlIwakJCZ3dGb0FVSit5ZWx4ODVld1V0YVZPZFJ1SHJsRnVqZDlZd0RRWUpLb1pJaHZjTgpBUUVMQlFBRGdnRUJBTHhHc0FzYTAvMWhTUUVuanZaRmpjYUNrYnE3T25xZUdST2tHSndyMnc5TzhhMFQ2RXJ2ClBmQjA0RjBCMTlKNkd4L0oxN2dpL3ZDZmc4cVFkNzdCVnF5N0Vtc3g3M21LYzM0cGJZcVA3SExUczJFWGE1d3AKdVR5czhHTm9NVG1UeHhoTTZzYkpOOEJsd3dTcG5Ra1RNRjVSd2JnNnRZNnZOK09WS3FETFlqakFwZjluNFc1bwo0dm90OS9XcFN1dG9sK25DUUVwY2xEb2hGSnJMY2ZVeUI2emszZHZEYzZnLzMyQWtUR0YydExtYVNOOUl2UFBCCk1rN0NyQXpsVzhkOWdJZXFqOWFvRUVkcGdvL0NVVWhEZ3U4RVAwbko4ZEtVV3ErRDF0am1GLzJydm5pMWVNcjMKdDRLTDZpZ2FFbS82enVMdGVQRUJqMlc2L3NhWnhOdkJ0K3c9Ci0tLS0tRU5EIENFUlRJRklDQVRFLS0tLS0K,
    client-key-data: LS0tLS1CRUdJTiBSU0EgUFJJVkFURSBLRVktLS0tLQpNSUlFcFFJQkFBS0NBUUVBc1lBVUROYlVCMlYyVW1XUUhPZmpRbVNsMWNZQnpMY1A5UDhVMWoyZFdIVjNqS29TCjBab2JxRlAwMmxPQlh0azI1Nm10bkZPbkJrTFgySTFmME1uOUJaQ2dkY283clRid1NOa2RIRWZKODViWVc2MFoKWE9BNTRKaHQ1RkFXbTZGd085KzM3blFrczBMWjlpOWRHTEJ4VkdFaDF2NEovSFJKVi9TUXRSNnp4SHplUXo4UApscytWb1BBR01IQ2xaU0FxUGpYWVhJNHhpWUppWkhrK1NSTWR0WWJxSit4bHd6dkFvM1gvTTFuZi90RGdYNlFzCnU1TVk1Y2RKWWhzTmcyL1FUeDRMaXA5Y3YxTGt1RFFlekEzQkhDMlhMaFlMdG9jWFdMUXJWakYyYS9kT2NQQWQKVmdsaUNUdVk5TS96dzhkWklCaTFpODRRNU5ldUF4VFhxTFBnYndJREFRQUJBb0lCQUQrQVNLd0hOemVtTHR4dgpoVTB5RUhXeU9EbndhcmhvVFljaXNydXFzMTN3T0dMVWZZTUxGUlgxWTBXd1Zqb3VqNXYxY2l6WktJbnU0L1dQCkxsWXR6UjF1amxsVmpsLzdwWjhLUFlYZWtQdGFYZkQrVG5LUnJXTVNaVTRtOE0rZ3c5eEh2eS9KMFU5b2ZUMjcKMkJ4N0V6QlN4NTU0cCszdlZFWHBNdFA1TmVyM0FLYWViRS81MGR1NnNIcTZKWW5BNXZueURUdlFGYmxQZ2dYZgpqUnYxdEp4WDBzVUl4SmFQUXV1RzlqL3Y3aXd4ekRqbzNyVnFQRndPbCtzTmNTRlBQT3hBNElsYjBXNFdBNjVPClZ1S0xtMmlEaFRpVmFtK1JHYXk4QnlEaHEyYy9seDVzSjUvNzdhRTdXeS9nVUpyZGZUdGFhaDgrSW9SWVJJY3EKUWtmN3R0RUNnWUVBME0xcHE1WnJ5UDhJMDZ1bW9IbVNzSC92cUYzVitiVDNmSVVnaGxkQVdCZUZhVm9uNElPSAowOGltTGhtNE9hYS8rdFBNdDIwMElxaEFnWlkraXpGcW5oRzNsWkFEQjB6TVJBNm9LVXdwNWVXS0NOV2srbVl3Cm5PSVd5Q1BjS1FiUUhzN2NGSXltK2UxYzNNRExjMHQzWHVIanA4K2xYRS9McGtUQ1FCeHdGRzBDZ1lFQTJaOVYKc25XQW9HVU8zNmJ2bnM4NWhrcGZMYTZFcWo0NDRrYXAvSlcvZGlEbEE5YzZjbGhRczZIUlFyQkRrckJnZDdmYQptMk14aXVKcEQxeUU5ZndtelM2TmtDTTVjZ01DSHVhZ01ITnY5elVxWjZ1WGNsazdEeEdaSVhUQkFGZTc2cXVoCkQxQ0U2Znd4N2w5QzE2ZGtrYksydFVaL0NBU0tUbldOUU5uSnBzc0NnWUVBdWlXR2dUeFcxeGZXaks1SW5HUUYKekdnaUJoMnh0eTRJUFBDS01IbjBtUlJQRWI4WU1lWFEzNVBQNHVWM0FaNlJKRkpSL1d6VHY5bnp1Qk56cXEvaApkdzRnZHF1dXA0RmwwWDZubURtWVdLWXNTdmY4WG1kZ0MxemNKbzBocDBtMW5PR1ovby91Qkg0Qi9hTzdQUXdZClhYUlFlcmg1bVRSaVA5YW92bk1iMEhrQ2dZRUFxVmRBUXpjR0dVbXFNa1Rmank5bmJ1VXVmUWloT1N4ajdVZloKZkxBMkpVRGhsSVNGZVhiWmpYNXNyTDBtUjk0eG90Y1JKL3NmRVJpdmNnR25nUlp1UnhsamxQYWorK0QxWklCSAp4SXYvWTFrZW56ODZBUVFJWGVodXhVYnA3RTlZN2ZvUndTNEJ6Mldzb1BYRnVMUU1JUWYwL3NoVmp6S2hRUDVlCkpVbVRqZE1DZ1lFQWlGdURRK1lBRVpDR1liWkhMNGNNVGRyUU5WQkE3OTAyVGZNbnRWYW5ieXRFNEp5WlFqYk8KbzFrWFhYMDhoRzBQSGNhSXpoazNyRkRIa2U3ZHhidDVRQnhFTktONGdCWDFvWEtnY1BWUmZQejA2cnQxUG1IdgppanpIWTRtaFFDZDhjc0huN0M2OW1VRVNQWTM3VWJ0UEhlcXdZN05TVU5aeFVpSC9aUXFONTlNPQotLS0tLUVORCBSU0EgUFJJVkFURSBLRVktLS0tLQo=}